gem5 Simulator System.  http://gem5.org
gem5 is copyrighted software; use the --copyright option for details.

gem5 compiled Feb  7 2019 15:22:43
gem5 started Mar 22 2019 20:08:51
gem5 executing on artax, pid 550
command line: /home/ruben/gem5/build/ARM/gem5.opt /home/ruben/gem5/configs/example/arm/starter_se.py 'say -a -q -o large_output.au'

info: Standard input is not a terminal, disabling listeners.
info: 1. command and arguments: ['say', '-a', '-q', '-o', 'large_output.au']
Global frequency set at 1000000000000 ticks per second
exiting with last active thread context  @  1639232048750
