gem5 Simulator System.  http://gem5.org
gem5 is copyrighted software; use the --copyright option for details.

gem5 compiled Feb  7 2019 15:22:43
gem5 started Mar 23 2019 10:41:33
gem5 executing on artax, pid 14693
command line: /home/ruben/gem5/build/ARM/gem5.opt /home/ruben/gem5/configs/example/arm/starter_se.py 'bf e input_large.asc output_large.enc 1234567890abcdeffedcba0987654321'

info: Standard input is not a terminal, disabling listeners.
info: 1. command and arguments: ['bf', 'e', 'input_large.asc', 'output_large.enc', '1234567890abcdeffedcba0987654321']
Global frequency set at 1000000000000 ticks per second
exiting with last active thread context  @  297697282250
gem5 Simulator System.  http://gem5.org
gem5 is copyrighted software; use the --copyright option for details.

gem5 compiled Feb  7 2019 15:22:43
gem5 started Mar 23 2019 11:02:26
gem5 executing on artax, pid 20675
command line: /home/ruben/gem5/build/ARM/gem5.opt /home/ruben/gem5/configs/example/arm/starter_se.py 'bf d output_large.enc output_large.asc 1234567890abcdeffedcba0987654321'

info: Standard input is not a terminal, disabling listeners.
info: 1. command and arguments: ['bf', 'd', 'output_large.enc', 'output_large.asc', '1234567890abcdeffedcba0987654321']
Global frequency set at 1000000000000 ticks per second
exiting with last active thread context  @  297677060000
