gem5 Simulator System.  http://gem5.org
gem5 is copyrighted software; use the --copyright option for details.

gem5 compiled Feb  7 2019 15:22:43
gem5 started Mar 23 2019 16:42:28
gem5 executing on artax, pid 8048
command line: /home/ruben/gem5/build/ARM/gem5.opt /home/ruben/gem5/configs/example/arm/starter_se.py 'rijndael input_large.asc output_large.enc e 1234567890abcdeffedcba09876543211234567890abcdeffedcba0987654321'

info: Standard input is not a terminal, disabling listeners.
info: 1. command and arguments: ['rijndael', 'input_large.asc', 'output_large.enc', 'e', '1234567890abcdeffedcba09876543211234567890abcdeffedcba0987654321']
Global frequency set at 1000000000000 ticks per second
exiting with last active thread context  @  94683781250
gem5 Simulator System.  http://gem5.org
gem5 is copyrighted software; use the --copyright option for details.

gem5 compiled Feb  7 2019 15:22:43
gem5 started Mar 23 2019 16:49:02
gem5 executing on artax, pid 9919
command line: /home/ruben/gem5/build/ARM/gem5.opt /home/ruben/gem5/configs/example/arm/starter_se.py 'rijndael output_large.enc output_large.dec d 1234567890abcdeffedcba09876543211234567890abcdeffedcba0987654321'

info: Standard input is not a terminal, disabling listeners.
info: 1. command and arguments: ['rijndael', 'output_large.enc', 'output_large.dec', 'd', '1234567890abcdeffedcba09876543211234567890abcdeffedcba0987654321']
Global frequency set at 1000000000000 ticks per second
exiting with last active thread context  @  90976177000
