gem5 Simulator System.  http://gem5.org
gem5 is copyrighted software; use the --copyright option for details.

gem5 compiled Feb  7 2019 15:22:43
gem5 started Mar 23 2019 16:41:44
gem5 executing on artax, pid 7809
command line: /home/ruben/gem5/build/ARM/gem5.opt /home/ruben/gem5/configs/example/arm/starter_se.py 'rijndael input_small.asc output_small.enc e 1234567890abcdeffedcba09876543211234567890abcdeffedcba0987654321'

info: Standard input is not a terminal, disabling listeners.
info: 1. command and arguments: ['rijndael', 'input_small.asc', 'output_small.enc', 'e', '1234567890abcdeffedcba09876543211234567890abcdeffedcba0987654321']
Global frequency set at 1000000000000 ticks per second
exiting with last active thread context  @  9094647000
gem5 Simulator System.  http://gem5.org
gem5 is copyrighted software; use the --copyright option for details.

gem5 compiled Feb  7 2019 15:22:43
gem5 started Mar 23 2019 16:42:23
gem5 executing on artax, pid 8004
command line: /home/ruben/gem5/build/ARM/gem5.opt /home/ruben/gem5/configs/example/arm/starter_se.py 'rijndael output_small.enc output_small.dec d 1234567890abcdeffedcba09876543211234567890abcdeffedcba0987654321'

info: Standard input is not a terminal, disabling listeners.
info: 1. command and arguments: ['rijndael', 'output_small.enc', 'output_small.dec', 'd', '1234567890abcdeffedcba09876543211234567890abcdeffedcba0987654321']
Global frequency set at 1000000000000 ticks per second
exiting with last active thread context  @  8738650500
