gem5 Simulator System.  http://gem5.org
gem5 is copyrighted software; use the --copyright option for details.

gem5 compiled Feb  7 2019 15:22:43
gem5 started Mar 23 2019 20:56:21
gem5 executing on artax, pid 18478
command line: /home/ruben/gem5/build/ARM/gem5.opt /home/ruben/gem5/configs/example/arm/starter_se.py 'mad-0.14.2b/madplay --time=4 --output=wave:output_small.wav -v small.mp3'

info: Standard input is not a terminal, disabling listeners.
info: 1. command and arguments: ['mad-0.14.2b/madplay', '--time=4', '--output=wave:output_small.wav', '-v', 'small.mp3']
Global frequency set at 1000000000000 ticks per second
